Version 4
SHEET 1 880 680
WIRE 432 -32 336 -32
WIRE 432 -16 432 -32
WIRE 432 112 432 64
WIRE 336 128 336 -32
WIRE 336 128 240 128
WIRE -192 144 -288 144
WIRE 32 144 -112 144
WIRE 336 160 240 160
WIRE -288 176 -288 144
WIRE -288 272 -288 256
WIRE 336 272 336 160
WIRE 336 272 -288 272
WIRE 432 272 432 192
WIRE 432 272 336 272
WIRE 336 288 336 272
FLAG 336 288 0
SYMBOL AutoGenerated\\IPP60R190P6_L0 128 144 R0
SYMATTR InstName U1
SYMBOL voltage 432 96 R0
WINDOW 123 0 0 Left 0
WINDOW 39 0 0 Left 0
SYMATTR InstName V1
SYMATTR Value 300
SYMBOL res -96 128 R90
WINDOW 0 0 56 VBottom 2
WINDOW 3 32 56 VTop 2
SYMATTR InstName R1
SYMATTR Value 5
SYMBOL voltage -288 160 R0
WINDOW 123 0 0 Left 0
WINDOW 39 0 0 Left 0
SYMATTR InstName V2
SYMATTR Value PULSE(0 10 0 0 0 8.25u 33.333u 1000)
SYMBOL res 416 -32 R0
SYMATTR InstName R2
SYMATTR Value 30
TEXT 26 218 Left 2 !.tran 100u
