Version 4
SHEET 1 1160 680
WIRE 176 -192 176 -224
WIRE 176 -64 176 -112
WIRE 1088 -16 944 -16
WIRE 1088 96 1088 64
WIRE -272 112 -416 112
WIRE 112 112 -192 112
WIRE 352 112 352 64
WIRE 352 112 240 112
WIRE 944 128 944 -16
WIRE 944 128 880 128
WIRE 528 144 240 144
WIRE 624 144 608 144
WIRE 672 144 624 144
WIRE 944 160 880 160
WIRE 112 176 64 176
WIRE 352 176 240 176
WIRE 48 192 -416 192
WIRE 64 192 64 176
WIRE 64 192 48 192
WIRE 624 192 624 144
WIRE 48 240 48 192
WIRE 352 240 352 176
WIRE 352 240 48 240
WIRE 944 240 944 160
WIRE 1088 240 1088 176
WIRE 1088 240 944 240
WIRE 1088 272 1088 240
WIRE 624 288 624 272
WIRE 944 288 944 240
WIRE 944 288 624 288
FLAG 176 -64 0
FLAG 176 -224 +15V
FLAG 352 64 +15V
FLAG 352 240 0
FLAG 1088 272 0
SYMBOL AutoGenerated\\acpl-p346 176 144 R0
SYMATTR InstName U1
SYMBOL cap 336 112 R0
SYMATTR InstName C1
SYMATTR Value 1µ
SYMBOL voltage 176 -208 R0
WINDOW 123 0 0 Left 0
WINDOW 39 0 0 Left 0
SYMATTR InstName V1
SYMATTR Value 15
SYMBOL res 624 128 R90
WINDOW 0 0 56 VBottom 2
WINDOW 3 32 56 VTop 2
SYMATTR InstName R1
SYMATTR Value 8.8
SYMBOL AutoGenerated\\IPP60R190P6_L0 768 144 R0
SYMATTR InstName U2
SYMBOL voltage 1088 80 R0
WINDOW 123 0 0 Left 0
WINDOW 39 0 0 Left 0
SYMATTR InstName V2
SYMATTR Value 300
SYMBOL res 1072 -32 R0
SYMATTR InstName R2
SYMATTR Value 30
SYMBOL voltage -416 96 R0
WINDOW 123 0 0 Left 0
WINDOW 39 0 0 Left 0
SYMATTR InstName V3
SYMATTR Value PULSE(0 3.3 0 0 0 16.667u 33.333u 100)
SYMBOL res -176 96 R90
WINDOW 0 0 56 VBottom 2
WINDOW 3 32 56 VTop 2
SYMATTR InstName R3
SYMATTR Value 200
SYMBOL res 608 176 R0
SYMATTR InstName R4
SYMATTR Value 3.3k
TEXT -146 264 Left 2 !.tran 0.1m
